17
Coordinates from ORCA-job PtNH34p2h-RHF-Sapporo-DZP-2012-OPT
  Pt  -1.99084566121389     -0.14771759398661     -0.00591656074565
  N   -0.44400197079456      1.25189503821281      0.15935200555668
  N   -3.38614180442895      1.41035774128832     -0.08022424956534
  N   -3.53769313396808     -1.54727595680428     -0.17139543161251
  N   -0.59544053346071     -1.70580774580807      0.06853634934032
  H   -0.54016902294371      1.85035650941242      0.96841452628094
  H   -0.38478807621145      1.86837870148178     -0.63973137889947
  H   -4.06200983516402      1.36962715043543      0.67048644685950
  H   -4.46178140501441     -1.14997025585343     -0.25597555189843
  H   -3.59650993667769     -2.16466742447598      0.62702223802737
  H   0.08193889354005     -1.66438904471558     -0.68076826697307
  H   -0.99035812165538     -2.63251766813343      0.00466108753218
  H   -3.92108371924055      1.41763702635296     -0.93808223655102
  H   0.48005344403946      0.85483786366558      0.24517996563520
  H   -0.06228111439829     -1.71392198576951      0.92748938626918
  H   -2.99122414696680      2.33719722396796     -0.01820932179596
  H   -3.44238385544097     -2.14496957927036     -0.98114900745992
