17
Coordinates from ORCA-job PtNH34p2f-mPW1PW-Sapporo-DZP-2012-OPT
  Pt  -1.99074838727756     -0.14769116374344     -0.00604050310658
  N   -0.46620033289316      1.23047960447383      0.16274156623360
  N   -3.36637171755796      1.38640511183028     -0.08725409917324
  N   -3.51560953676668     -1.52580177614575     -0.17433751909775
  N   -0.61502036233498     -1.68187646115396      0.07499295661075
  H   -0.56117660750690      1.82618937069957      0.99178023921731
  H   -0.41045636932813      1.86031979049431     -0.64437584600463
  H   -4.04876237278057      1.34674189369194      0.67694016395904
  H   -4.45390387943943     -1.12385957510885     -0.25229997727362
  H   -3.57115491710283     -2.15551632165061      0.63290267821041
  H   0.06865040757642     -1.64158025270119     -0.68796976400810
  H   -1.01342237410228     -2.62288326252291      0.01386691191788
  H   -3.90518966785192      1.38923700443843     -0.95955644362678
  H   0.47212477915406      0.82880301783314      0.24123148064077
  H   -0.07773350540327     -1.68576932967716      0.94820327658432
  H   -2.96834694401200      2.32766689698106     -0.02784175359837
  H   -3.42139821237277     -2.12181454773868     -1.00329336748500
