17
Coordinates from ORCA-job PtNH34p2a-PBE0-LANL2TZ-OPT
  Pt  -1.99069624888208     -0.14764907867150     -0.00618991543108
  N   -0.46200709530393      1.23496092026969      0.16328459646799
  N   -3.37049857527150      1.39084776916866     -0.08757506123570
  N   -3.51959816566778     -1.53036559045503     -0.17532920819307
  N   -0.61102447299757     -1.68631648394764      0.07548603977326
  H   -0.56293011870911      1.82248411166303      0.99204581962970
  H   -0.41343435656690      1.85854822666672     -0.64357703480552
  H   -4.04369110996413      1.34574643736427      0.67859501762113
  H   -4.45081954407989     -1.12257303382904     -0.24997132125571
  H   -3.56722324152925     -2.15429527762143      0.63132747255448
  H   0.06590151223756     -1.63922702546337     -0.68725261363535
  H   -1.01502241205751     -2.62007360655364      0.01354982894010
  H   -3.90444111334530      1.38563996743665     -0.95770559570460
  H   0.46931093083430      0.82782525977951      0.23990387443366
  H   -0.08132377960532     -1.68401461758710      0.94826273922426
  H   -2.96693392359902      2.32509254785770     -0.03062559247884
  H   -3.42028828549250     -2.11758052607747     -1.00453904590469
