17
Coordinates from ORCA-job PtNH34p2-PBE-QIDH-def2-TZVP-OPT
  Pt  -1.99080902322838     -0.14759007741038     -0.00588201315858
  N   -0.47690483901549      1.22320835400559      0.16061381727621
  N   -3.35676024306342      1.37765996804455     -0.08682530035831
  N   -3.50488117178056     -1.51871195557620     -0.17254116333888
  N   -0.62479702574831     -1.67299533531261      0.07506798752815
  H   -0.62454998570609      1.87522436631746      0.92715723947543
  H   -0.36522227563334      1.77947655566874     -0.68395331746676
  H   -3.98047922139774      1.38034524638832      0.71698321216659
  H   -4.43902787521675     -1.12011366968630     -0.15261087433373
  H   -3.49883819243222     -2.20023892869275      0.58245736005507
  H   0.10678887865528     -1.57826815376137     -0.62519428335373
  H   -1.01415611860957     -2.59792562098450     -0.08220943137334
  H   -3.94316305913608      1.32982508133677     -0.91658303961830
  H   0.43880046468978      0.82100471393743      0.33851919784899
  H   -0.16281202418769     -1.72881589144686      0.98001276007552
  H   -2.95092308738168      2.30853930604277     -0.11139657725426
  H   -3.45698520080769     -2.04157395887066     -1.04392557417007
