17
Coordinates from ORCA-job PtNH34p2a-B2PLYP-LANL2TZ-OPT
  Pt  -1.99088069793304     -0.14761655397585     -0.00602850141772
  N   -0.45532724492754      1.24238200436359      0.16158285622159
  N   -3.37654646603396      1.39890499589285     -0.08598651041040
  N   -3.52625392901813     -1.53771471099958     -0.17448834312716
  N   -0.60543649076830     -1.69438139377610      0.07527032693533
  H   -0.59682240714702      1.88756652015975      0.94034204076691
  H   -0.35503530879017      1.80950158924872     -0.68205541410727
  H   -3.99654365079357      1.40437681308634      0.72574934809306
  H   -4.46401771809933     -1.13717798831516     -0.16092356983277
  H   -3.52210855495610     -2.21719690822782      0.58779678196495
  H   0.12974226178440     -1.59820883679972     -0.62680934263841
  H   -0.99717755786466     -2.62232041365750     -0.08413539831476
  H   -3.97009176114163      1.34747172194721     -0.91536882886939
  H   0.46653087434505      0.83757640245633      0.32374784598283
  H   -0.14395224222001     -1.74976252120242      0.98494088856933
  H   -2.96748775426621      2.33252056828314     -0.11731617572903
  H   -3.47331135216974     -2.06687128848377     -1.04662800408710
