17
Coordinates from ORCA-job PtNH34p2-mPW2PLYP-def2-TZVP-OPT
  Pt  -1.99083030677979     -0.14762163692764     -0.00588780458208
  N   -0.45740825040580      1.24033249144396      0.16198079071089
  N   -3.37439659383022      1.39661814817843     -0.08635033223834
  N   -3.52419052366045     -1.53567087015904     -0.17380849198615
  N   -0.60747922461409     -1.69217079899010      0.07461522214206
  H   -0.60040995698989      1.88386289807067      0.93988910101001
  H   -0.35780017935706      1.80653114309548     -0.68053463234316
  H   -3.99867098694814      1.39662533289168      0.72022147830899
  H   -4.45965930272346     -1.13331181428585     -0.16353661922975
  H   -3.52087158471967     -2.21138627482508      0.58984446095390
  H   0.12232506481892     -1.59726330279531     -0.63111739921094
  H   -1.00119954182615     -2.61869480391810     -0.07896181706915
  H   -3.96092630436643      1.34774015270174     -0.91906572477770
  H   0.46234483456115      0.83435320005950      0.32429575166379
  H   -0.14213467598865     -1.74324408271110      0.98088037065723
  H   -2.96465723609317      2.32863536811629     -0.10966699707536
  H   -3.46875523107707     -2.06628514994554     -1.04310735693425
