17
Coordinates from ORCA-job PtNH34p2-RI-SCS-MP2-LANL2DZ-OPT
  Pt  -1.99076368030985     -0.14774569828476     -0.00607926344131
  N   -0.42068875036664      1.27363043391568      0.17013637340149
  N   -3.40733848399192      1.43470881090225     -0.08848728628715
  N   -3.56102434615480     -1.56915315749929     -0.18193851957732
  N   -0.57427477935632     -1.73009662676262      0.07637673444957
  H   -0.54210751797925      1.86007632360530      1.01245200375995
  H   -0.38621938550424      1.89427866214068     -0.65562001690914
  H   -4.07675550518982      1.37539352788507      0.69676961217908
  H   -4.49578855779519     -1.13853837144847     -0.26040519602314
  H   -3.59531324407316     -2.18923917815707      0.64425126647667
  H   0.09573991675045     -1.67035446581691     -0.70836869341560
  H   -1.00289700259526     -2.66740669993187      0.02175315763766
  H   -3.94158536746298      1.41061432288099     -0.97291134749613
  H   0.51425798832377      0.84355412588735      0.24900210959424
  H   -0.04067124133392     -1.70655476281971      0.96126594273783
  H   -2.97889277418969      2.37213864373880     -0.03461273275230
  H   -3.44039726877112     -2.15625589023542     -1.02389414433439
