17
Coordinates from ORCA-job PtNH34p2b-M06-ZORA-def2-TZVP-OPT
  Pt  -1.99098391184176     -0.14770391966903     -0.00591644461168
  N   -0.44323437679652      1.24975799288940      0.16650655269476
  N   -3.38580022748340      1.40907545386530     -0.09185450317382
  N   -3.53837259854404     -1.54525755521718     -0.17875801742983
  N   -0.59621680676169     -1.70448626118450      0.08074264942081
  H   -0.53309467036850      1.82183849148749      1.00657509543705
  H   -0.40991664121326      1.88965296363046     -0.62731933378332
  H   -4.05040184315769      1.37588592024608      0.68160572810165
  H   -4.47239652223173     -1.14067350439163     -0.22493038479406
  H   -3.56788294899744     -2.18956473616429      0.61167148922007
  H   0.07348796088763     -1.66613112986188     -0.68792524109177
  H   -1.00049294999561     -2.63867645714801      0.03404251180564
  H   -3.93152726909157      1.39231306024783     -0.95375968224968
  H   0.49032360575038      0.84470988522365      0.21893121890368
  H   -0.05620384824825     -1.69221307618511      0.94625468547744
  H   -2.98047123115268      2.34323560505272     -0.05385872074424
  H   -3.45153572075385     -2.11271273282131     -1.02231760318271
