17
Coordinates from ORCA-job PtNH34p2g-CAM-B3LYP-Sapporo-DZP-2012-OPT
  Pt  -1.99074705580021     -0.14770827029509     -0.00617239633229
  N   -0.46412700701333      1.23175768878101      0.16301346960053
  N   -3.36797596085637      1.38832390938972     -0.08685216170196
  N   -3.51750052461552     -1.52707193662666     -0.17526912459022
  N   -0.61364176441865     -1.68381842708953      0.07503153553522
  H   -0.55857890925936      1.82990869981592      0.99241769203182
  H   -0.40699303176514      1.86377525372463     -0.64444825353065
  H   -4.04960352403502      1.35178567768676      0.68043523459214
  H   -4.45720650058777     -1.12461905873195     -0.25382960368112
  H   -3.57446661404956     -2.15871768010436      0.63249751017241
  H   0.07203883013097     -1.64498862454638     -0.68855390594835
  H   -1.01220504282613     -2.62650466865618      0.01477884233157
  H   -3.91262323327170      1.38966245678051     -0.95750088868509
  H   0.47567905958259      0.82967855246039      0.24198131064763
  H   -0.07368690606377     -1.68791746664380      0.94861249180605
  H   -2.96937744294778      2.33134039073585     -0.03215214778950
  H   -3.42370437220317     -2.12583649668085     -1.00429960445817
