17
Coordinates from ORCA-job PtNH34p2-PBE0-LANL2DZ-OPT
  Pt  -1.99079502106419     -0.14779809002848     -0.00600026035466
  N   -0.45120245712082      1.24609732075896      0.16756245468120
  N   -3.38247310192623      1.40197543873676     -0.09266234008175
  N   -3.53090656998936     -1.54212334305306     -0.17665605632740
  N   -0.59902155288474     -1.69692151507489      0.07812193731556
  H   -0.60908837766114      1.87783600099870      0.96162975609150
  H   -0.36570130213542      1.81042715396326     -0.68640794188413
  H   -4.00003304672148      1.39053405349298      0.72801959983021
  H   -4.46347215466885     -1.11541122214188     -0.16275378373945
  H   -3.51354504302793     -2.21273826246655      0.60086950947947
  H   0.12083197822456     -1.59049335617052     -0.64646229643171
  H   -1.01646031111516     -2.62194760610089     -0.07024887841637
  H   -3.96158544692588      1.33460016014088     -0.93806213308056
  H   0.46590470478663      0.81498792879835      0.32566341275074
  H   -0.13719472019339     -1.72802467583792      0.99509620106835
  H   -2.94938286813162      2.33133830634536     -0.11905083016279
  H   -3.46059470944496     -2.06328829236107     -1.05896835073821
