17
Coordinates from ORCA-job PtNH34p2b-DSD-BLYP-ZORA-def2-TZVP-OPT
  Pt  -1.99082544893702     -0.14754411854816     -0.00592417637323
  N   -0.47547800516305      1.22429949901055      0.16090667760455
  N   -3.35741232916551      1.37935343425271     -0.08665521396891
  N   -3.50594262091107     -1.51939756869971     -0.17288585673148
  N   -0.62443835678973     -1.67495955047893      0.07494591825263
  H   -0.62125222460986      1.87354464056912      0.93343060336752
  H   -0.36940482679559      1.78567217540811     -0.68406458065526
  H   -3.98410741264222      1.37896247506567      0.71797073104928
  H   -4.44282258069448     -1.12035092504359     -0.16173104410553
  H   -3.50354259924633     -2.19710511275036      0.58899172247430
  H   0.10804785465782     -1.58091730187941     -0.62806399894133
  H   -1.01479555978038     -2.60255014507103     -0.08038461603486
  H   -3.94285523577477      1.33254158980339     -0.92025609677725
  H   0.44416712416728      0.82180509054104      0.33192674155971
  H   -0.16104310238722     -1.72828648190466      0.98216747004873
  H   -2.95121100235958      2.31286234211185     -0.10786467762801
  H   -3.45180367356826     -2.04888004238658     -1.04281960314086
