17
Coordinates from ORCA-job PtNH34p2g-PBE0-Sapporo-DZP-2012-OPT
  Pt  -1.99073359204574     -0.14769898051272     -0.00626007355765
  N   -0.47193845510234      1.22502098658427      0.16232547815650
  N   -3.36108796776901      1.38066828853616     -0.08690265666275
  N   -3.50958406374039     -1.52038881233679     -0.17461915206856
  N   -0.62057212866765     -1.67609577198418      0.07501983838267
  H   -0.56635106868158      1.82295147580771      0.99056187392412
  H   -0.41353054140326      1.85573142991393     -0.64469957027196
  H   -4.04271852396448      1.34406418999101      0.67893106371054
  H   -4.44878397905244     -1.11955465355228     -0.25426410492477
  H   -3.56769913124170     -2.15056122520746      0.63284541341174
  H   0.06603917145139     -1.63669817930895     -0.68624010203202
  H   -1.01739765610956     -2.61824702499905      0.01242210351413
  H   -3.90412284593763      1.38321022781739     -0.95729752964037
  H   0.46732913360076      0.82452564051917      0.24245259006169
  H   -0.08335647163322     -1.68215333668960      0.94902800865233
  H   -2.96432127653379      2.32327698542837     -0.03116487367354
  H   -3.41589060316931     -2.11900124000696     -1.00244830698211
