17
Coordinates from ORCA-job PtNH34p2h-mPW1PW-Sapporo-DZP-2012-OPT
  Pt  -1.99094660212393     -0.14766088049983     -0.00567303313187
  N   -0.47279980977859      1.22483085804114      0.16204918934795
  N   -3.36080770861318      1.37964438096859     -0.08793906564536
  N   -3.50926719856796     -1.51985874891343     -0.17430004415257
  N   -0.62063924847471     -1.67548851915264      0.07680139587193
  H   -0.60758686488501      1.87695937437243      0.94060753475111
  H   -0.36357493272543      1.79816754901192     -0.68042824622252
  H   -3.99000518814681      1.39157773770625      0.72087475076852
  H   -4.45283569037141     -1.12477014690446     -0.15297715548546
  H   -3.50892666932540     -2.21152462993198      0.58154623915499
  H   0.11599859704480     -1.59111522004859     -0.63031541532803
  H   -1.00679446269559     -2.61104921134738     -0.07231643462911
  H   -3.95804952844016      1.33527295594640     -0.91925648441495
  H   0.45450769849521      0.82497959721254      0.32576172831549
  H   -0.14629150397042     -1.73126641379413      0.98365953203331
  H   -2.95851675427711      2.31977672101668     -0.11764828550762
  H   -3.46818413314426     -2.04942540368350     -1.05075620572581
