17
Coordinates from ORCA-job PtNH34p2-mPW1PW-def2-QZVP-OPT
  Pt  -1.99077883390522     -0.14785750807167     -0.00580608462071
  N   -0.46004731954819      1.23612381548230      0.16289042626857
  N   -3.37176703860679      1.39254475252642     -0.08828500709974
  N   -3.52174901630453     -1.53186462454359     -0.17406344685168
  N   -0.60990953108103     -1.68796121150803      0.07579308103462
  H   -0.60337080344770      1.87866683852433      0.93897668876528
  H   -0.35939122502580      1.80175046745760     -0.67748413045062
  H   -3.99499514885064      1.39345330440254      0.71660308645064
  H   -4.45487195307197     -1.12979581206462     -0.15185500060797
  H   -3.51253280659089     -2.21352040087344      0.58153376133563
  H   0.11543182273063     -1.59499585583769     -0.63200719179801
  H   -1.00295068498432     -2.61345133661792     -0.07211153274304
  H   -3.95761067740406      1.34213478353477     -0.91896389596812
  H   0.45737655216908      0.83024571318318      0.32579123298035
  H   -0.14098160007044     -1.73541716480637      0.97816176309729
  H   -2.96311896229674      2.32283066530405     -0.11284148502546
  H   -3.47345277371135     -2.05383642609185     -1.04664226476702
