17
Coordinates from ORCA-job PtNH34p2-B3LYP-def2-TZVP-OPT
  Pt  -1.99086272243885     -0.14768185868316     -0.00564278819181
  N   -0.44046219545660      1.25392998003108      0.16415554478792
  N   -3.39040960144292      1.41195745614450     -0.08821900577339
  N   -3.54139009811225     -1.54945896861902     -0.17441950240805
  N   -0.59109305010958     -1.70751269278478      0.07488496091880
  H   -0.58773535804475      1.90002434191327      0.94185228748445
  H   -0.33901829118773      1.81794602289075     -0.68214561673481
  H   -4.01470968807654      1.41033540262624      0.72097030148861
  H   -4.47720478121325     -1.14343563134886     -0.15013779692251
  H   -3.52925859254581     -2.23323066844000      0.58471213289459
  H   0.13384048269921     -1.61258816290481     -0.63889292091012
  H   -0.98815048296625     -2.63592809312995     -0.07195315273497
  H   -3.97754079613970      1.35950378638763     -0.92282707245295
  H   0.47898018641288      0.84406188752141      0.33098331161914
  H   -0.11938183108154     -1.75253145258025      0.98049418858366
  H   -2.97803675322340      2.34491772942411     -0.11218013793806
  H   -3.49228642707286     -2.07125907844815     -1.05194473371052
