17
Coordinates from ORCA-job PtNH34p2h-mPW2PLYP-Sapporo-DZP-2012-OPT
  Pt  -1.99080358682888     -0.14764473724786     -0.00597926285947
  N   -0.47177162294435      1.22645635586260      0.16226489905029
  N   -3.36122519324550      1.38193199674069     -0.08549947458289
  N   -3.50992366977848     -1.52170864083901     -0.17408988662907
  N   -0.62035083794096     -1.67742045446907      0.07350984675679
  H   -0.57007373018285      1.82702491156254      0.98722029863742
  H   -0.41214756182952      1.85274768782055     -0.64719396878231
  H   -4.04357834948141      1.34282853275873      0.67857348076634
  H   -4.44781841058317     -1.12041286218544     -0.25768152624406
  H   -3.56885086284800     -2.14866589413209      0.63492400465123
  H   0.06399939258136     -1.63729848319142     -0.68871099777850
  H   -1.01878995912163     -2.61820763889542      0.01224681863426
  H   -3.90156263828438      1.38514325133114     -0.95673680332703
  H   0.46601788600605      0.82526549595352      0.24713861768646
  H   -0.08231003811939     -1.68198182413867      0.94614254553796
  H   -2.96292110235643      2.32291388158648     -0.02693229041757
  H   -3.41260971504241     -2.12192157851728     -0.99950630109984
