17
Coordinates from ORCA-job PtNH34p2c-B2PLYP-ZORA-def2-TZVP-OPT
  Pt  -1.99082366436627     -0.14759099760340     -0.00605850639982
  N   -0.46157835059561      1.23616637550725      0.16226077712711
  N   -3.37032509008457      1.39283152807834     -0.08691163274511
  N   -3.52005935172428     -1.53150452763882     -0.17400839922396
  N   -0.61151514310097     -1.68827197383887      0.07501739382412
  H   -0.60086839292296      1.87510286523352      0.94665439393509
  H   -0.36723619051236      1.80939121342521     -0.67799256616844
  H   -3.99727073441762      1.39164726353313      0.71955527272663
  H   -4.45742312385009     -1.12954423616867     -0.17173719263416
  H   -3.52115427714887     -2.20384509639481      0.59471015246286
  H   0.11803292280628     -1.59560227801589     -0.63350266200025
  H   -1.00514273625410     -2.61709192861128     -0.07495040759167
  H   -3.95626246494717      1.34515359122291     -0.92201785618295
  H   0.46147804340113      0.83060502742479      0.31610941105582
  H   -0.14341503907099     -1.73691333680231      0.98174191709357
  H   -2.96117252603371      2.32678005450065     -0.10807149966033
  H   -3.45998388117780     -2.06826354385175     -1.04110859561850
