17
Coordinates from ORCA-job PtNH34p2-mPW1PW-def2-TZVP-OPT
  Pt  -1.99091422735446     -0.14751731407544     -0.00613305997305
  N   -0.45882803058202      1.23717300103081      0.16303895719317
  N   -3.37302355872031      1.39435685525004     -0.08680284063916
  N   -3.52281266205632     -1.53252928608019     -0.17445997684879
  N   -0.60888348996640     -1.68954639625872      0.07466692966211
  H   -0.59375573834906      1.86814199210477      0.95216778033039
  H   -0.37147946014971      1.81535713690908     -0.67222091734888
  H   -3.99982611341049      1.39035512117075      0.71737975790870
  H   -4.45794477442928     -1.13037184081732     -0.18298882908994
  H   -3.52885537336042     -2.19657300314044      0.59892534264297
  H   0.11312359789384     -1.60065310820658     -0.63931312408235
  H   -1.00349798620227     -2.61729657937796     -0.06592148290778
  H   -3.95595825066422      1.34730284988651     -0.92168190705718
  H   0.46347246729835      0.83095766740174      0.30640338947327
  H   -0.13534413955275     -1.73165298769754      0.97664502770792
  H   -2.96409627509292      2.32633420764849     -0.10463165251417
  H   -3.45609598530151     -2.07478831574800     -1.03538339445723
