17
Coordinates from ORCA-job PtNH34p2f-M062X-Sapporo-DZP-2012-OPT
  Pt  -1.99077786804734     -0.14782300858144     -0.00590410726530
  N   -0.45334517258380      1.24260272558638      0.16104774827921
  N   -3.37827226204884      1.39844560462830     -0.08606651500369
  N   -3.52834633750508     -1.53809762118420     -0.17127952147810
  N   -0.60325658622912     -1.69422645332495      0.07253262938424
  H   -0.59082064926270      1.90089284398469      0.93763012984096
  H   -0.33893709205833      1.81605552754905     -0.68390657770582
  H   -4.02162630099024      1.40092229984763      0.71507926575322
  H   -4.47310737765214     -1.13794600318831     -0.16276169218694
  H   -3.53548700270247     -2.22362283431474      0.59376363995809
  H   0.13120624862253     -1.61134447085817     -0.64091153018798
  H   -0.99299525553658     -2.63233267783606     -0.07196728632168
  H   -3.96790495194640      1.36386979250521     -0.92665973792717
  H   0.47524183164029      0.84087808953598      0.33194731618717
  H   -0.11923764118054     -1.74969974869396      0.97728594229024
  H   -2.97370764932379      2.34132162972348     -0.09755975917447
  H   -3.48334593319542     -2.08084569537887     -1.04257994444198
