17
Coordinates from ORCA-job PtNH34p2h-CAM-B3LYP-Sapporo-DZP-2012-OPT
  Pt  -1.99072662890964     -0.14771261026134     -0.00615078227512
  N   -0.46642636671930      1.22966820294659      0.16305123387481
  N   -3.36601109996495      1.38600943023139     -0.08703553384496
  N   -3.51510064796185     -1.52505902245684     -0.17526716781607
  N   -0.61572027876387     -1.68135568887730      0.07524049736982
  H   -0.56075757743108      1.82711644842702      0.99270035058962
  H   -0.40962818212020      1.86174716302078     -0.64410016609181
  H   -4.04774449020276      1.34921658141257      0.67985239146068
  H   -4.45459818772666     -1.12268136040862     -0.25387162127965
  H   -3.57210621908797     -2.15654668927311      0.63234967926675
  H   0.06907855926095     -1.64310303479883     -0.68886864041514
  H   -1.01437136375947     -2.62384763869843      0.01603889441482
  H   -3.90983871482962      1.38752466366840     -0.95793988988764
  H   0.47317593357349      0.82753860731422      0.24146831644855
  H   -0.07540505324601     -1.68475459515665      0.94833134225417
  H   -2.96743212170613      2.32879153701630     -0.03186815928954
  H   -3.42110756040488     -2.12350199410617     -1.00424074477931
