17
Coordinates from ORCA-job PtNH34p2-M06-LANL2DZ-OPT
  Pt  -1.99354178112927     -0.14246418741759     -0.00474587129646
  N   -0.42073474132118      1.25642022746475      0.09046744089689
  N   -3.41332164638329      1.41288721142939     -0.00889956954123
  N   -3.55434610786965     -1.55474797528087     -0.10414543211177
  N   -0.57603877654775     -1.70279435042824     -0.00071453348589
  H   -0.68209448754343      2.11556893045571      0.58817307581806
  H   -0.11882752249106      1.52421278465180     -0.85505721154820
  H   -4.22815684737584      1.18533435842024      0.57399687874615
  H   -4.45548852340344     -1.13580378091342     -0.36217929572801
  H   -3.68297655871916     -2.01676859507896      0.80513125215739
  H   0.25047335530139     -1.47050508127930     -0.56489951541574
  H   -0.94586185957431     -2.57748973297266     -0.39058680214389
  H   -3.74165500251698      1.59817205161191     -0.96540158457695
  H   0.39611655005482      0.88420656773710      0.58959432885452
  H   -0.26385980843394     -1.90547567676507      0.95761563704462
  H   -3.04411426311459      2.29660804257119      0.36081413487171
  H   -3.37029197893229     -2.27831079420600     -0.80947293254119
