17
Coordinates from ORCA-job PtNH34p2g-mPW1PW-Sapporo-DZP-2012-OPT
  Pt  -1.99079741360700     -0.14769173377702     -0.00626339440195
  N   -0.46987330591993      1.22675028088453      0.16228459348994
  N   -3.36278332092923      1.38263300954639     -0.08681916529669
  N   -3.51163993820318     -1.52200471034793     -0.17458737020603
  N   -0.61887850550366     -1.67813945352964      0.07495301646831
  H   -0.56412418774684      1.82329050017226      0.99032848639653
  H   -0.41273143457108      1.85736486483145     -0.64365773990809
  H   -4.04371058480202      1.34543283990217      0.67829480553347
  H   -4.44985715822317     -1.12130390133807     -0.25330727093205
  H   -3.56868698640771     -2.15191878187446      0.63191034947385
  H   0.06650891893233     -1.63859452333497     -0.68609444157264
  H   -1.01558427482903     -2.61927840724974      0.01302250060878
  H   -3.90505446969853      1.38481079893746     -0.95653582632153
  H   0.46843652343701      0.82637718222809      0.24117651137117
  H   -0.08182468111101     -1.68333905996305      0.94791838642901
  H   -2.96614470734489      2.32416981253034     -0.03092213815779
  H   -3.41797447347199     -2.11950871761780     -1.00201130297430
