17
Coordinates from ORCA-job PtNH34p2-B2PLYP-def2-TZVP-OPT
  Pt  -1.99085812622624     -0.14761528106994     -0.00595525372543
  N   -0.45624973993503      1.24157493327282      0.16240374099725
  N   -3.37556883909264      1.39795690201634     -0.08687474282058
  N   -3.52543458777736     -1.53684977541740     -0.17417057619128
  N   -0.60623790336848     -1.69351968343049      0.07506658958265
  H   -0.59796683905419      1.88347000654845      0.94387012389968
  H   -0.35888069559061      1.81103631864039     -0.67999466541575
  H   -3.99913353780753      1.39942947518010      0.72214763350882
  H   -4.46251666257441     -1.13448744015230     -0.16462592804418
  H   -3.52236071145554     -2.21301580179489      0.59108885583117
  H   0.12463106953327     -1.59868071181004     -0.63172006863352
  H   -1.00018798625525     -2.62155408806053     -0.07856391574493
  H   -3.96436530242320      1.34765050501544     -0.91973878688840
  H   0.46561094981163      0.83534428935497      0.32130442887001
  H   -0.14051118589911     -1.74439710410896      0.98282572535629
  H   -2.96542293246316      2.33131414067477     -0.11283741461778
  H   -3.46926696942210     -2.06860668485874     -1.04453574596402
