17
Coordinates from ORCA-job PtNH34p2f-PBE0-DH-Sapporo-DZP-2012-OPT
  Pt  -1.99074359598372     -0.14759972383143     -0.00597870186321
  N   -0.47574782369229      1.22280714673845      0.16170267108752
  N   -3.35789388669144      1.37782973588734     -0.08584088871718
  N   -3.50581192842094     -1.51813890824997     -0.17368845184471
  N   -0.62377226245181     -1.67313021684138      0.07406197136613
  H   -0.57256887097426      1.82063528411981      0.98535456084264
  H   -0.41673560274251      1.84811955493937     -0.64500577143565
  H   -4.03838062809796      1.33923559189275      0.67618221766124
  H   -4.44177059000561     -1.11876268664440     -0.25502375393987
  H   -3.56386093129799     -2.14467202572873      0.63216607351288
  H   0.05885591861107     -1.63359646274257     -0.68597697485647
  H   -1.02040998950813     -2.61173655675907      0.01272458326393
  H   -3.89639980499808      1.38135839903590     -0.95491175969743
  H   0.45999067743779      0.82338190651591      0.24492311497656
  H   -0.08772753695021     -1.67823674633727      0.94462312434674
  H   -2.96149557244130      2.31669539803545     -0.02744264124417
  H   -3.41024757179257     -2.11513969003014     -0.99817937345896
