17
Coordinates from ORCA-job PtNH34p2-wB97X-D3BJ-def2-TZVP-OPT
  Pt  -1.99071678967648     -0.14790066292697     -0.00587750631943
  N   -0.45633190478766      1.23864174271532      0.16384611095369
  N   -3.37518742036103      1.39636000930391     -0.08880826071846
  N   -3.52553556672431     -1.53449112980131     -0.17469908065467
  N   -0.60635940970576     -1.69179174752452      0.07593239375497
  H   -0.59937026420518      1.88076440750629      0.94447333486696
  H   -0.35801814733555      1.80831277603871     -0.67788466870410
  H   -3.99820764528501      1.39791777117317      0.72025854511400
  H   -4.46124601401775     -1.13035113913404     -0.15420397253829
  H   -3.51696206820929     -2.21754201901003      0.58390204419982
  H   0.11960611568298     -1.59925220149503     -0.63582107262483
  H   -1.00119492659523     -2.62038977712412     -0.06949386142437
  H   -3.96478790315669      1.34354460423296     -0.92053676316815
  H   0.46431828403648      0.83102490926160      0.32396660458838
  H   -0.13429217066728     -1.73665738409937      0.98036375329994
  H   -2.96511902708719      2.32941059389623     -0.11614081977698
  H   -3.47531514190501     -2.05855075301280     -1.04958678084848
