17
Coordinates from ORCA-job PtNH34p2-LC-BLYP-def2-TZVP-OPT
  Pt  -1.99075903202237     -0.14790935230782     -0.00589942308539
  N   -0.46486143209200      1.23111745953177      0.16445156022507
  N   -3.36781178279292      1.38762096888212     -0.08962493365711
  N   -3.51698287225361     -1.52674134569030     -0.17741245625443
  N   -0.61372232511384     -1.68321239386544      0.07878372809660
  H   -0.60423414325952      1.87245847207204      0.95491583560482
  H   -0.36873472421436      1.80944389215433     -0.67960822291763
  H   -3.99392271733816      1.39142918636362      0.72535411903325
  H   -4.45992157387281     -1.12260455146812     -0.16186458890371
  H   -3.51341746148682     -2.21278191618529      0.58734058374306
  H   0.11382071681206     -1.59639426036824     -0.64137268631082
  H   -1.00937297671296     -2.61966575484569     -0.05976481658512
  H   -3.96215473489254      1.33531054029018     -0.92602065812236
  H   0.46384723812204      0.82319220810085      0.31872303900442
  H   -0.13507489835104     -1.72432710274960      0.98728165717169
  H   -2.95751247237762      2.32764587219545     -0.11865348390553
  H   -3.46390480815349     -2.05553192210985     -1.05693925313682
