17
Coordinates from ORCA-job PtNH34p2f-PBE-QIDH-Sapporo-DZP-2012-OPT
  Pt  -1.99088618218743     -0.14752215922946     -0.00566231048374
  N   -0.48049829519444      1.21829226735462      0.15933339064979
  N   -3.35299615522884      1.37326478304193     -0.08708061272116
  N   -3.50093754012751     -1.51310682125901     -0.17198708540513
  N   -0.62924216839637     -1.66872721173299      0.07666315749234
  H   -0.61674853278438      1.87279570259589      0.93239078200089
  H   -0.36864262870231      1.78652485967536     -0.68321204128110
  H   -3.98044291486717      1.38571605092990      0.72001700754789
  H   -4.44299642192086     -1.12055373222039     -0.15344659360502
  H   -3.50116565368076     -2.20202239040851      0.58300182191217
  H   0.11378607186523     -1.57790868161987     -0.61924263589054
  H   -1.01240596511465     -2.60059948441836     -0.08654587701433
  H   -3.94998072516659      1.32790510999719     -0.91543879242069
  H   0.44404396184021      0.82000589574096      0.32789338201950
  H   -0.16611477628169     -1.73359470618282      0.98588453876078
  H   -2.95177911058920      2.31132032315282     -0.11750592473796
  H   -3.45771296346321     -2.04273980541726     -1.04537220682369
