17
Coordinates from ORCA-job PtNH34p2b-PBE-QIDH-ZORA-def2-TZVP-OPT
  Pt  -1.99084040425538     -0.14761937683027     -0.00605264833676
  N   -0.48013095939715      1.21989935424931      0.16109145646556
  N   -3.35298898377950      1.37468428310637     -0.08687698905812
  N   -3.50157077451931     -1.51513066930495     -0.17370288636697
  N   -0.62864845946026     -1.67010032515740      0.07564933992902
  H   -0.62699935617095      1.87050183927361      0.92896125413396
  H   -0.37079987041482      1.77777161952764     -0.68276136099143
  H   -3.97229934288407      1.37999324644028      0.72031726518240
  H   -4.43633628088586     -1.11753771039281     -0.16152833113920
  H   -3.49880123186956     -2.19252151763200      0.58501166545153
  H   0.10347116435318     -1.57561835357067     -0.62409276061045
  H   -1.01734967483882     -2.59528384827887     -0.08131474257488
  H   -3.94416018164660      1.32355035974034     -0.91297906323662
  H   0.43632275161022      0.81848749407935      0.33623567258716
  H   -0.16741559081877     -1.72494462436790      0.98105365788531
  H   -2.94780665913370      2.30556043179626     -0.11716930655139
  H   -3.44836614588863     -2.04264220267828     -1.04215222276912
