17
Coordinates from ORCA-job PtNH34p2-B3LYP-LANL2DZ-OPT
  Pt  -1.99094088985180     -0.14769625227399     -0.00577316080074
  N   -0.43246929264844      1.26306857071668      0.16782018834379
  N   -3.39990576375359      1.41992237824445     -0.09206447455763
  N   -3.54966881279453     -1.55870391224704     -0.17706973568296
  N   -0.58156395411957     -1.71505608513334      0.07764322474347
  H   -0.59844539052055      1.90523293049310      0.95515769136000
  H   -0.33974143991170      1.81774970348894     -0.69479069611023
  H   -4.01415736125366      1.41020960699641      0.73431649589716
  H   -4.48331891853204     -1.12916604472842     -0.14631059902868
  H   -3.52094277177397     -2.23909912584271      0.59496912774515
  H   0.14562004697114     -1.59908830723445     -0.64175867445245
  H   -1.00060900125351     -2.63993727897903     -0.08387132243438
  H   -3.98378625922603      1.34628179164040     -0.93675861161736
  H   0.48301797701332      0.82814530416774      0.34046729606499
  H   -0.12760222638279     -1.75251955501975      1.00125430874448
  H   -2.96307603598977      2.35005787756149     -0.12502800787807
  H   -3.48712990597246     -2.07035160185047     -1.06851305033654
