17
Coordinates from ORCA-job PtNH34p2h-M06-Sapporo-DZP-2012-OPT
  Pt  -1.99071053953830     -0.14771496574750     -0.00612413320864
  N   -0.45384504664385      1.24178208505698      0.16105116427117
  N   -3.37767888304285      1.39871535993254     -0.08604378498083
  N   -3.52765029420649     -1.53710562922850     -0.17318371530277
  N   -0.60391444248691     -1.69419010454846      0.07419794949884
  H   -0.54531620133791      1.84247311785256      0.98839423965442
  H   -0.39586606359148      1.87400732297413     -0.64556445214120
  H   -4.06188470770361      1.36224531821515      0.67831648693667
  H   -4.46813751845805     -1.13671728948577     -0.25007946885521
  H   -3.58458142540974     -2.17031399642783      0.63274175431959
  H   0.08651802334767     -1.65346683366973     -0.68428825171205
  H   -1.00054933212387     -2.63698091077018      0.00694005378412
  H   -3.92218124291307      1.40393692284443     -0.95622835865567
  H   0.48666592541970      0.84189686818013      0.24021249178360
  H   -0.06653788767181     -1.70477325024560      0.94876336017156
  H   -2.98110522280763      2.34217543196806     -0.02806361652984
  H   -3.43794514083175     -2.13691944690040     -1.00135171903376
