17
Coordinates from ORCA-job PtNH34p2-LC-BLYP-LANL2DZ-OPT
  Pt  -1.99076502898846     -0.14765682249150     -0.00611165877944
  N   -0.45721006199023      1.23964999388734      0.16897471731694
  N   -3.37615585161562      1.39526406982491     -0.09381880642845
  N   -3.52437469240308     -1.53511783665603     -0.18088765480642
  N   -0.60555269267888     -1.69064588449398      0.08182853406197
  H   -0.57582130997555      1.82134528411995      1.01666469391236
  H   -0.42235787468491      1.86330991786078     -0.65614392361411
  H   -4.04754648713229      1.33729294646207      0.69166943263065
  H   -4.45990454376897     -1.10272469864332     -0.25630393146374
  H   -3.55911056167769     -2.15782225572089      0.64495034525342
  H   0.06903197761017     -1.63033528551907     -0.70067710440105
  H   -1.03437274918956     -2.62898243254120      0.02225371167331
  H   -3.90622909385920      1.37105301994163     -0.98230527795727
  H   0.47833023890607      0.80715352591833      0.24400316519287
  H   -0.07940763632589     -1.66928309558543      0.97271096498499
  H   -2.94753646909253      2.33398587774441     -0.03897146908604
  H   -3.40573716313333     -2.11743632410801     -1.02814573848998
