17
Coordinates from ORCA-job PtNH34p2-B2PLYP-LANL2DZ-OPT
  Pt  -1.99078010422545     -0.14767213951879     -0.00614758228300
  N   -0.43009108916805      1.26522517623282      0.16867910245747
  N   -3.40031422633168      1.42376685490677     -0.09000815022552
  N   -3.55171475481772     -1.56068074511603     -0.18018527303890
  N   -0.58118479664484     -1.71916690668015      0.07753132504659
  H   -0.55120884282962      1.84458931113121      1.01058649516881
  H   -0.39901458689468      1.88310038750096     -0.65378554343227
  H   -4.06677777827217      1.36147237634281      0.69175774227892
  H   -4.48044879759465     -1.12707464821203     -0.25571869720406
  H   -3.58279454734431     -2.17716026299604      0.64333945293859
  H   0.08659979001139     -1.65557069040594     -0.70301409491659
  H   -1.01156905934070     -2.65058370806080      0.01887874232631
  H   -3.92736927304271      1.39843839057673     -0.97360110510821
  H   0.49883972348269      0.83199531444251      0.24381634251644
  H   -0.05576417088967     -1.69539246243428      0.96221251600384
  H   -2.97002193183302      2.35535604732319     -0.03358457575591
  H   -3.43110555426477     -2.14159229503292     -1.02106669677251
