17
Coordinates from ORCA-job PtNH34p2-B3LYP-def2-QZVP-OPT
  Pt  -1.99080326746918     -0.14781362619746     -0.00577637272205
  N   -0.44164919191047      1.25272463658709      0.16366448127175
  N   -3.38897092864279      1.41088739419858     -0.08774783463576
  N   -3.54022362789800     -1.54831487772439     -0.17473345687513
  N   -0.59268024632232     -1.70636728190209      0.07530396564925
  H   -0.58496551672919      1.89416102950713      0.94356435784204
  H   -0.34499884749971      1.82060790133754     -0.67833946684017
  H   -4.01187328015453      1.41023024788625      0.72018083707141
  H   -4.47473723487838     -1.14361062747337     -0.15452659551057
  H   -3.52999661067050     -2.22898487752293      0.58474603199486
  H   0.13288353267212     -1.61151824461013     -0.63516016743517
  H   -0.98877988478115     -2.63299891567241     -0.07283681614497
  H   -3.97604676433225      1.35893083589608     -0.92018798989452
  H   0.47754018698323      0.84375468284971      0.32287655373003
  H   -0.12284388963337     -1.75230114337828      0.97973961175466
  H   -2.97742373268658      2.34232502570514     -0.11267187722748
  H   -3.48915069604689     -2.07266215948646     -1.04840526202817
