17
Coordinates from ORCA-job PtNH34p2b-wB97X-D3BJ-ZORA-def2-TZVP-OPT
  Pt  -1.99070764488986     -0.14773098657085     -0.00617167758876
  N   -0.45977682237862      1.23516639524806      0.16379957137511
  N   -3.37100737171500      1.39281167249461     -0.08734476441530
  N   -3.52172263201153     -1.53056776117325     -0.17589308202302
  N   -0.61066506094147     -1.68829111569589      0.07535816560229
  H   -0.56219237726185      1.82321004927404      0.99206227714795
  H   -0.41302838797539      1.85987419709544     -0.64235224188363
  H   -4.04404661946793      1.34677931609380      0.67897639584258
  H   -4.45289493515746     -1.12278466618818     -0.25171480414826
  H   -3.56839820758817     -2.15470109617961      0.63070105008005
  H   0.06526558325171     -1.64086815565443     -0.68830630732706
  H   -1.01484830938427     -2.62219762080933      0.01602797992105
  H   -3.90681274411371      1.38527000613800     -0.95634187659212
  H   0.47164703863539      0.82805605073312      0.24002686038074
  H   -0.07815306566675     -1.68294546000669      0.94642343167923
  H   -2.96723843926613      2.32713157760372     -0.03169884235011
  H   -3.42014000406890     -2.11916240240257     -1.00386213570074
