17
Coordinates from ORCA-job PtNH34p2g-B3LYP-Sapporo-DZP-2012-OPT
  Pt  -1.99068560184428     -0.14769447691279     -0.00607547618075
  N   -0.45301025411205      1.24192404155408      0.16335794448989
  N   -3.37811291404322      1.39930490875841     -0.08700726804503
  N   -3.52863919814028     -1.53728079208321     -0.17541956188073
  N   -0.60337060005595     -1.69480133584038      0.07511238834253
  H   -0.54767607401623      1.83959504348359      0.99454766463425
  H   -0.39811174910363      1.87424598137887     -0.64548294550372
  H   -4.06116329481802      1.36004910435937      0.68044456183777
  H   -4.46928145916824     -1.13335161099693     -0.25103753380296
  H   -3.58271194903925     -2.17043832201736      0.63283572283994
  H   0.08222512678579     -1.65431829986764     -0.68996705590314
  H   -1.00364086709692     -2.63804066942956      0.01421021216096
  H   -3.92078905242801      1.40097019172691     -0.96026161399952
  H   0.48761441625211      0.83840633579770      0.24107000837692
  H   -0.06348010102121     -1.69829397627311      0.95008414496879
  H   -2.97832024176695      2.34297285625991     -0.02937543907602
  H   -3.43556618638357     -2.13419897989783     -1.00734575325916
