17
Coordinates from ORCA-job PtNH34p2c-M06L-ZORA-def2-TZVP-OPT
  Pt  -1.99098564138484     -0.14808217650650     -0.00577462335439
  N   -0.44364452051476      1.25044849314041      0.16782340106457
  N   -3.38716891182108      1.40876859135490     -0.08922930377403
  N   -3.53833165140790     -1.54626863020166     -0.18053061338808
  N   -0.59453288778462     -1.70451588480833      0.07874180972505
  H   -0.53882251817854      1.83958563955976      0.99362653294951
  H   -0.39459255832436      1.87711496235057     -0.63405128269407
  H   -4.03973621517274      1.38819805662531      0.69299555062740
  H   -4.47077908053371     -1.14183624636034     -0.22751792289674
  H   -3.57283110381555     -2.19174049661604      0.60689144810405
  H   0.07846040683424     -1.66607906624190     -0.68520124882866
  H   -0.99663343861967     -2.63771571995958      0.02744255571915
  H   -3.94898095746159      1.38690453971575     -0.93883612046470
  H   0.48718931421394      0.84613695537672      0.24102702565224
  H   -0.05552723391829     -1.69872698148059      0.94337114435628
  H   -2.98213598708318      2.34193321890946     -0.06930332930845
  H   -3.45566701502729     -2.11507525485795     -1.02178502348913
