17
Coordinates from ORCA-job PtNH34p2-mPW1PW-LANL2DZ-OPT
  Pt  -1.99100636967908     -0.14765962615019     -0.00568405841254
  N   -0.44899889296783      1.24769925908248      0.16866585796989
  N   -3.38395473455748      1.40346144065690     -0.09329651170431
  N   -3.53306043951457     -1.54317923786956     -0.17646117426680
  N   -0.59746755445016     -1.69884212756868      0.07762206557666
  H   -0.61132463582153      1.88391933550268      0.95657909471007
  H   -0.35886367663438      1.80556410642161     -0.68756695326280
  H   -3.99919274959848      1.39269185897358      0.72756947236417
  H   -4.46442486618014     -1.11749212318573     -0.15240178501569
  H   -3.50938413735162     -2.21919813641538      0.59449750274073
  H   0.11988898191719     -1.59161189779332     -0.64757694105411
  H   -1.01466443870599     -2.62272576260093     -0.06936005242724
  H   -3.96392253376150      1.33343116326602     -0.93633997094930
  H   0.46532160526904      0.81704787024248      0.33534845623570
  H   -0.13435680219867     -1.72904939591153      0.99255727424246
  H   -2.95141552099082      2.33149912894616     -0.12215007168244
  H   -3.46789323477394     -2.05650585559658     -1.06231220506445
