17
Coordinates from ORCA-job PtNH34p2-B97-3c-def2-TZVP-OPT
  Pt  -1.99074784504808     -0.14762959396079     -0.00605172447201
  N   -0.45638585526760      1.23723104193430      0.16432835764093
  N   -3.37408796190158      1.39529091378974     -0.08868729421581
  N   -3.52524978894599     -1.53250088015660     -0.17613397012645
  N   -0.60751575010159     -1.69075461688458      0.07661731952140
  H   -0.56127566639326      1.81611910846187      0.99344253650294
  H   -0.41743381263150      1.85830225858557     -0.63959155572702
  H   -4.04169114409000      1.34385040092296      0.67630542234287
  H   -4.45179973981366     -1.12390000505894     -0.24559363517948
  H   -3.56345545030513     -2.15406253284856      0.62747817115253
  H   0.06186228494303     -1.63862469699937     -0.68678319785687
  H   -1.01253473453371     -2.61960176848642      0.01768706757759
  H   -3.90218127434803      1.38289278450261     -0.95731889738876
  H   0.47007286701064      0.82872170644879      0.23539551479045
  H   -0.08114984322141     -1.67967384601107      0.94630290793270
  H   -2.96952586433520      2.32452160457694     -0.03214858357039
  H   -3.42162042101691     -2.11113187881644     -1.00555843892463
