17
Coordinates from ORCA-job PtNH34p2-B97-3c-def2-QZVP-OPT
  Pt  -1.99087509408214     -0.14784689921865     -0.00600597425794
  N   -0.45819318102599      1.23561130271703      0.16290028137846
  N   -3.37270337109208      1.39353203867127     -0.08810576572647
  N   -3.52378193841111     -1.53098585712647     -0.17487215759686
  N   -0.60896996539538     -1.68917519835850      0.07663944256100
  H   -0.61075403628784      1.88113415699800      0.93081715735311
  H   -0.35695445301491      1.78865168763558     -0.68228424731206
  H   -3.97943110156738      1.39930907582094      0.72565601769261
  H   -4.45353225809505     -1.12945379325911     -0.13887618032042
  H   -3.50164625173855     -2.21683200461459      0.57268833005439
  H   0.12361746816069     -1.58216119405957     -0.61728278754401
  H   -0.99989344215636     -2.60900681015502     -0.09058339827032
  H   -3.96601243016525      1.32871201473239     -0.90876298985288
  H   0.45376879923617      0.82877620837116      0.33523929631742
  H   -0.15972307601479     -1.74180909325559      0.98541176116583
  H   -2.96233523570198      2.31914520294300     -0.13021237825932
  H   -3.47730043264801     -2.03855083784187     -1.05267640738254
