17
Coordinates from ORCA-job PtNH34p2a-B97-3c-LANL2TZ-OPT
  Pt  -1.99096630967017     -0.14765002745355     -0.00601571283802
  N   -0.45687330811979      1.23786243689064      0.16242310526388
  N   -3.37472087525189      1.39474122880761     -0.08744451830541
  N   -3.52497096227590     -1.53306273385115     -0.17523592719697
  N   -0.60721807077192     -1.69036842976609      0.07692872063228
  H   -0.60412090034310      1.87677126295291      0.93927270886552
  H   -0.36246398290677      1.79812224610284     -0.68099707567517
  H   -3.98495527786611      1.39638778026114      0.72596367176077
  H   -4.45626474076108     -1.12972685512232     -0.15394098594318
  H   -3.51144840830273     -2.21069809000575      0.58247641288218
  H   0.12277072367967     -1.58659392668885     -0.62285740788018
  H   -1.00018152999355     -2.61218586782467     -0.08511972454598
  H   -3.96442734277212      1.33402851789209     -0.91326938265048
  H   0.45833373927841      0.82952955477335      0.32387893747712
  H   -0.15441747131103     -1.73966807135410      0.98615647154388
  H   -2.96331084349031      2.32203473650739     -0.12361384448039
  H   -3.46948443912156     -2.05047376212148     -1.04891544890987
