17
Coordinates from ORCA-job PtNH34p2c-B97-3c-ZORA-def2-TZVP-OPT
  Pt  -1.99070768674687     -0.14766623534504     -0.00626110926902
  N   -0.46301814344361      1.23103149488106      0.16405011997534
  N   -3.36789735416786      1.38869796997492     -0.08868400401308
  N   -3.51847931695504     -1.52629494620121     -0.17590975774670
  N   -0.61379450592545     -1.68415379608969      0.07638723222427
  H   -0.56663387099430      1.81096488543905      0.99212285694879
  H   -0.42142294823458      1.85275378693122     -0.63875736732616
  H   -4.03554859695531      1.33913610415509      0.67588224727900
  H   -4.44494901330544     -1.11866424745741     -0.24700621603523
  H   -3.55931999703352     -2.14756305426874      0.62728807323529
  H   0.05688376168856     -1.63339905577616     -0.68546199507300
  H   -1.01734206131634     -2.61322621628628      0.01688010641955
  H   -3.89793460753749      1.37733788921616     -0.95569079550068
  H   0.46353961858683      0.82378000096689      0.23621795935082
  H   -0.08714114104983     -1.67530485029125      0.94553376305196
  H   -2.96497113323010      2.31830718447513     -0.03316434985316
  H   -3.41598300337957     -2.10668691432375     -1.00373676366797
