17
Coordinates from ORCA-job PtNH34p2a-RHF-LANL2TZ-OPT
  Pt  -1.99083731093352     -0.14754709962083     -0.00619500149769
  N   -0.43910794116062      1.25798712449087      0.16110119189439
  N   -3.39058257355213      1.41625914068636     -0.08374791939928
  N   -3.54255053963771     -1.55324938466144     -0.17007378787182
  N   -0.59123037938596     -1.71158467624702      0.06900376655895
  H   -0.57484343746853      1.89166331833096      0.93154591906628
  H   -0.34496464136780      1.82529103586601     -0.66556936620566
  H   -4.00599144085782      1.42079945815999      0.71339285012919
  H   -4.46606727674234     -1.15596819740759     -0.16985220672218
  H   -3.54376375954076     -2.21559854837985      0.58811298097483
  H   0.13187530079049     -1.61752370336745     -0.62503316430969
  H   -0.98135414995885     -2.62519123808886     -0.08524378522987
  H   -3.97775005765116      1.36777499653814     -0.90009998807778
  H   0.47028525477170      0.85697051728523      0.31251418998215
  H   -0.12787728020834     -1.76748740580393      0.96138831056960
  H   -2.98441717226479      2.33542123517125     -0.11058717896539
  H   -3.48554259483181     -2.08896657295184     -1.02096681089602
