17
Coordinates from ORCA-job PtNH34p2g-PBE0-DH-Sapporo-DZP-2012-OPT
  Pt  -1.99075324939961     -0.14769609639130     -0.00585626899725
  N   -0.47988655178525      1.21888223117287      0.16176081181657
  N   -3.35380106497553      1.37379580332449     -0.08577138904948
  N   -3.50170765152685     -1.51405700381095     -0.17358692561569
  N   -0.62783697144847     -1.66925646930130      0.07399261877692
  H   -0.57640836347628      1.81770978214553      0.98427326502993
  H   -0.41971644187647      1.84434605388970     -0.64428053131723
  H   -4.03529179414443      1.33600551379761      0.67490606439770
  H   -4.43752674207087     -1.11571959325609     -0.25539161999749
  H   -3.56089348764055     -2.14111622947296      0.63131200126597
  H   0.05501324325493     -1.63066870035405     -0.68538992576000
  H   -1.02350801569188     -2.60777950153309      0.01309588519283
  H   -3.89249329141573      1.37824813470158     -0.95429497211649
  H   0.45580353112483      0.82071937087774      0.24579555760938
  H   -0.09073814326667     -1.67510510751517      0.94345683713654
  H   -2.95827193223639      2.31250458012670     -0.02716164613615
  H   -3.40670307342473     -2.11176276840131     -0.99716976223608
