17
Coordinates from ORCA-job PtNH34p2b-mPW2PLYP-ZORA-def2-TZVP-OPT
  Pt  -1.99070252831202     -0.14766235753638     -0.00610912233577
  N   -0.46116575163708      1.23621399580059      0.16248038589242
  N   -3.37018851737045      1.39300575810784     -0.08598091141426
  N   -3.52033969942462     -1.53161231965134     -0.17438178037977
  N   -0.61145540021711     -1.68839481645871      0.07391240393677
  H   -0.56567479232827      1.82730987864912      0.98694846058477
  H   -0.41095446416779      1.85582717617686     -0.64600691472067
  H   -4.04578293038903      1.34486875045142      0.67646852377088
  H   -4.45072861941936     -1.12521290620230     -0.25376479921238
  H   -3.56923539850268     -2.15219132472149      0.63345553942561
  H   0.06681004073345     -1.63886801921655     -0.68604193050352
  H   -1.01502908321725     -2.62106581802999      0.00881951188007
  H   -3.90097177937972      1.38993998587485     -0.95684188688558
  H   0.46915349225921      0.83021348408194      0.24442270889961
  H   -0.08369258782417     -1.68761274829982      0.94662833913544
  H   -2.96707269020983      2.32613221506066     -0.02459606417824
  H   -3.41768929059321     -2.12184093408670     -0.99972246389538
