17
Coordinates from ORCA-job PtNH34p2b-M062X-ZORA-def2-TZVP-OPT
  Pt  -1.99082897139479     -0.14763330749442     -0.00609654950349
  N   -0.45153191830599      1.24472104642257      0.16205390258109
  N   -3.37860369658660      1.40262342877504     -0.08571699990108
  N   -3.53021685729478     -1.54002811086493     -0.17293732636512
  N   -0.60310574099440     -1.69809450668869      0.07285745892688
  H   -0.57709305434046      1.86813936685149      0.96153481226803
  H   -0.37326424519151      1.83767445764484     -0.66628821621952
  H   -4.02840622594057      1.38187798352363      0.70237938496411
  H   -4.46633623623653     -1.13569163080729     -0.20542786006189
  H   -3.55102261861468     -2.19195787177538      0.61320741170974
  H   0.10728786040896     -1.62215879690837     -0.65721339869918
  H   -1.00144326626207     -2.63007127423181     -0.04368170344956
  H   -3.94422746767220      1.37435666508693     -0.93592823567372
  H   0.47572732457773      0.83861674163169      0.28907506930581
  H   -0.10741172068733     -1.72873204787165      0.96582326044315
  H   -2.97116104032095      2.33780031394744     -0.07151605374822
  H   -3.45308212514379     -2.10239245724110     -1.02243495657702
