17
Coordinates from ORCA-job PtNH34p2b-RI-SCS-MP2-ZORA-def2-TZVP-OPT
  Pt  -1.99081726720296     -0.14751367646518     -0.00589871901234
  N   -0.47697475851379      1.22383597819576      0.16014072009855
  N   -3.35545815025759      1.37939982904064     -0.08534511948233
  N   -3.50447475059515     -1.51908988901626     -0.17212787295275
  N   -0.62655441653827     -1.67469238629757      0.07394322285651
  H   -0.62078811223498      1.87732995105034      0.93498350248394
  H   -0.36881509175764      1.78959810573701     -0.68663452548134
  H   -3.98460867372802      1.38425944574500      0.72271707346639
  H   -4.44694876532478     -1.12247494720375     -0.17070022835963
  H   -3.50858915160565     -2.19580197742340      0.59612848651314
  H   0.11666697474270     -1.57802649847016     -0.62336476936760
  H   -1.01415155442043     -2.60605471431890     -0.09257258800617
  H   -3.94762597390301      1.33397193248827     -0.91932019315417
  H   0.44824131900334      0.82370735985689      0.33143732096109
  H   -0.16680974887046     -1.73772317510677      0.98696859393563
  H   -2.94954607045507      2.31745114776563     -0.11009840431258
  H   -3.44746580833820     -2.05912648557755     -1.04056650018634
