11
Coordinates from ORCA-job cispla1-PBE0-Sapporo-DZP-2012-OPT
  Pt  -3.35124598370622      0.27416420004917      0.11067512627178
  Cl  -1.95629073985504      2.08416963135413      0.23857054081557
  Cl  -1.70450195867168     -1.31046558806545      0.23336638157526
  N   -4.80812754088627      1.73271513394196      0.00185856489578
  N   -4.57859502360218     -1.38240958162569     -0.00213576872887
  H   -5.33813049986384      1.75652442233745     -0.86912434732100
  H   -4.24363369155545      2.59313559615493      0.05159537131933
  H   -3.89482828360493     -2.15125432422009      0.04982406863696
  H   -5.09715767532037     -1.48443863633005     -0.87436322248093
  H   -5.47047862827843      1.74891313561118      0.77716039633243
  H   -5.23366997465556     -1.49383398920755      0.77152288868369
