5
Coordinates from ORCA-job PtCl4-2e-M06L-DKH-def2-TZVP-OPT
  Pt  -1.76990080021936      1.04327811889524     -0.00162999499905
  Cl  -0.08520817872926      2.70737328620447      0.00091291459349
  Cl  -3.43407733105163      2.72785786360659      0.00830292792218
  Cl  -3.45458106721729     -0.62082133815890     -0.00403233699259
  Cl  -0.10571262278245     -0.64129793054741     -0.01173351052402
