5
Coordinates from ORCA-job PtCl4-2e-B2PLYP-DKH-def2-TZVP-OPT
  Pt  -1.76990240145829      1.04328196439429     -0.00163024948003
  Cl  -0.10054506540693      2.69226679788000      0.00088992576930
  Cl  -3.41890685410328      2.71254895071100      0.00821255656721
  Cl  -3.43923910674059     -0.60571994081680     -0.00401065780387
  Cl  -0.12088657229091     -0.62598777216849     -0.01164157505261
