5
Coordinates from ORCA-job PtCl4-2-RHF-def2-TZVP-OPT
  Pt  -1.76989540099168      1.04327808115362     -0.00162958824057
  Cl  -0.05852469311182      2.73382873955472      0.00095357407926
  Cl  -3.46039645717420      2.75459190205205      0.00846037425636
  Cl  -3.48126889011993     -0.64727255523032     -0.00407071352755
  Cl  -0.07939455860237     -0.66803616753007     -0.01189364656750
