5
Coordinates from ORCA-job PtCl4-2d-B97-3c-DKH-def2-TZVP-OPT
  Pt  -1.76990009892115      1.04327669336159     -0.00163034404086
  Cl  -0.10442888624920      2.68840441167455      0.00088396584311
  Cl  -3.41508853580190      2.70865415775915      0.00818965664086
  Cl  -3.43536203016997     -0.60185276166392     -0.00400498904835
  Cl  -0.12470044885778     -0.62209250113137     -0.01161828939476
