5
Coordinates from ORCA-job PtCl4-2g-PBE0-DH-Sapporo-DZP-2012-OPT
  Pt  -1.76987975843459      1.04327712936002     -0.00163051138157
  Cl  -0.11016940575433      2.68280387460167      0.00087556931440
  Cl  -3.40941663297568      2.70295692107042      0.00815597281345
  Cl  -3.42963265077733     -0.59623624950785     -0.00399697368551
  Cl  -0.13038155205808     -0.61641167552426     -0.01158405706077
