5
Coordinates from ORCA-job PtCl4-2e-B3LYP-DKH-def2-TZVP-OPT
  Pt  -1.76989422949451      1.04328165948242     -0.00162991839342
  Cl  -0.08032362953705      2.71226880110456      0.00092055581744
  Cl  -3.43889429479086      2.73279708602031      0.00833191591759
  Cl  -3.45946513678994     -0.62571365529769     -0.00403955254711
  Cl  -0.10090270938763     -0.64624389130959     -0.01176300079449
