5
Coordinates from ORCA-job PtCl4-2f-PBE0-Sapporo-DZP-2012-OPT
  Pt  -1.76989611051978      1.04327307977241     -0.00163017969049
  Cl  -0.09427328996170      2.69845540763278      0.00089936705662
  Cl  -3.42511710704913      2.71881031928546      0.00824952971214
  Cl  -3.44552310926635     -0.61188895097341     -0.00401947761051
  Cl  -0.11467038320304     -0.63225985571724     -0.01167923946775
