5
Coordinates from ORCA-job PtCl4-2d-PBE0-DH-DKH-def2-TZVP-OPT
  Pt  -1.76990569138449      1.04327915274654     -0.00163060394780
  Cl  -0.11771983008706      2.67533476708721      0.00086413660002
  Cl  -3.40194337246350      2.69541796328087      0.00811146919400
  Cl  -3.42206528912077     -0.58879196173364     -0.00398629044835
  Cl  -0.13784581694419     -0.60884992138099     -0.01153871139786
