5
Coordinates from ORCA-job PtCl4-2f-LC-BLYP-Sapporo-DZP-2012-OPT
  Pt  -1.76988353667543      1.04327323207339     -0.00163040860255
  Cl  -0.10475335568084      2.68815802642890      0.00088375764016
  Cl  -3.41477271251221      2.70838212953948      0.00818795152481
  Cl  -3.43505354493845     -0.60158568924538     -0.00400468720879
  Cl  -0.12501685019306     -0.62183769879639     -0.01161661335363
