5
Coordinates from ORCA-job PtCl4-2a-DSD-BLYP-LANL2TZ-OPT
  Pt  -1.76989556208516      1.04327844897660     -0.00163035723583
  Cl  -0.10453932600408      2.68836431218398      0.00088406059317
  Cl  -3.41496330993406      2.70859266145744      0.00818915350062
  Cl  -3.43525062574369     -0.60181125600919     -0.00400508383429
  Cl  -0.12483117623300     -0.62203416660884     -0.01161777302366
