5
Coordinates from ORCA-job PtCl4-2b-TPSSh-ZORA-def2-TZVP-OPT
  Pt  -1.76989730288957      1.04327804823844     -0.00163018233413
  Cl  -0.09560141846103      2.69711220117590      0.00089724452787
  Cl  -3.42380713450952      2.71745914688951      0.00824161736382
  Cl  -3.44418977185842     -0.61055415749397     -0.00401751016604
  Cl  -0.11598437228146     -0.63090523880988     -0.01167116939152
