5
Coordinates from ORCA-job PtCl4-2-TPSSh-def2-QZVP-OPT
  Pt  -1.76989678600738      1.04327784490563     -0.00163019652727
  Cl  -0.09627004136831      2.69646067354358      0.00089626895599
  Cl  -3.42314508563090      2.71679691811006      0.00823769541092
  Cl  -3.44352181279902     -0.60990169024327     -0.00401658489174
  Cl  -0.11664627419440     -0.63024374631601     -0.01166718294791
