5
Coordinates from ORCA-job PtCl4-2d-B3LYP-DKH-def2-TZVP-OPT
  Pt  -1.76990111310278      1.04327822262982     -0.00162989976572
  Cl  -0.07929190393954      2.71328509400085      0.00092210285579
  Cl  -3.43991031904255      2.73383437276396      0.00833801347412
  Cl  -3.46049749077116     -0.62673637129642     -0.00404103496418
  Cl  -0.09987917314397     -0.64727131809821     -0.01176918160001
