5
Coordinates from ORCA-job PtCl4-2f-CAM-B3LYP-Sapporo-DZP-2012-OPT
  Pt  -1.76991706830281      1.04328219671142     -0.00162993053260
  Cl  -0.08428618345903      2.70831239784205      0.00091441379015
  Cl  -3.43497317505038      2.72880897177571      0.00830844010658
  Cl  -3.45549126296062     -0.62176981418540     -0.00403381794205
  Cl  -0.10481231022715     -0.64224375214377     -0.01173910542208
