5
Coordinates from ORCA-job PtCl4-2h-DSD-BLYP-Sapporo-DZP-2012-OPT
  Pt  -1.76989372839774      1.04326950110595     -0.00163061386539
  Cl  -0.11503072493872      2.67800057509207      0.00086823052352
  Cl  -3.40460422300423      2.69809868783420      0.00812730257950
  Cl  -3.42476530486781     -0.59143663996193     -0.00399005888684
  Cl  -0.13518601879150     -0.61154212407029     -0.01155486035079
