5
Coordinates from ORCA-job PtCl4-2b-mPW1PW-ZORA-def2-TZVP-OPT
  Pt  -1.76989673763106      1.04327911660370     -0.00163032172798
  Cl  -0.10311644893891      2.68971612839043      0.00088600515062
  Cl  -3.41637788310401      2.70996710108552      0.00819738180064
  Cl  -3.43667453602617     -0.60315969909149     -0.00400689930889
  Cl  -0.12341439429985     -0.62341264698816     -0.01162616591439
