5
Coordinates from ORCA-job PtCl4-2e-PBE0-DH-DKH-def2-TZVP-OPT
  Pt  -1.76989302430076      1.04328016558976     -0.00163066707312
  Cl  -0.11956129715625      2.67352629464341      0.00086139824588
  Cl  -3.40012963384736      2.69357086986477      0.00810060394106
  Cl  -3.42023059959250     -0.58696871133612     -0.00398363214514
  Cl  -0.13966544510313     -0.60701861876183     -0.01152770296868
