5
Coordinates from ORCA-job PtCl4-2-mPW2PLYP-LANL2DZ-OPT
  Pt  -1.76989605198001      1.04327797412241     -0.00162876490475
  Cl  -0.01716499564925      2.77466937660546      0.00101593221373
  Cl  -3.50129188185003      2.79597569735972      0.00870439652936
  Cl  -3.52262667856805     -0.68811376656461     -0.00412966792600
  Cl  -0.03850039195267     -0.70941928152299     -0.01214189591233
