5
Coordinates from ORCA-job PtCl4-2f-M06-Sapporo-DZP-2012-OPT
  Pt  -1.76989285963381      1.04327384522527     -0.00162980743012
  Cl  -0.07056330647202      2.72191115603906      0.00093530083519
  Cl  -3.44853843251370      2.74256420634154      0.00838950398865
  Cl  -3.46923485704756     -0.63535619475300     -0.00405344709709
  Cl  -0.09125054433290     -0.65600301285287     -0.01182155029664
