5
Coordinates from ORCA-job PtCl4-2e-PBE-QIDH-DKH-def2-TZVP-OPT
  Pt  -1.76990112153006      1.04327788393641     -0.00163078776810
  Cl  -0.12758309063558      2.66559763992736      0.00084926801866
  Cl  -3.39220018304349      2.68555820221224      0.00805332434057
  Cl  -3.41220228876439     -0.57905369327545     -0.00397224341046
  Cl  -0.14759331602648     -0.59899003280056     -0.01147956118068
