5
Coordinates from ORCA-job PtCl4-2c-PBE0-DH-ZORA-def2-TZVP-OPT
  Pt  -1.76989912837594      1.04327656374153     -0.00163061258098
  Cl  -0.11689988719381      2.67615150694190      0.00086539972864
  Cl  -3.40275599848754      2.69623658405731      0.00811630460985
  Cl  -3.42289095364096     -0.58959988185075     -0.00398743970153
  Cl  -0.13703403230175     -0.60967477288999     -0.01154365205598
