5
Coordinates from ORCA-job PtCl4-2a-RHF-LANL2TZ-OPT
  Pt  -1.76989634701151      1.04327895635299     -0.00162961828939
  Cl  -0.06034209284639      2.73202668181864      0.00095080576314
  Cl  -3.45860193659915      2.75277341257522      0.00844965671775
  Cl  -3.47944605415335     -0.64547543596645     -0.00406812622821
  Cl  -0.08119356938960     -0.66621361478040     -0.01188271796329
