5
Coordinates from ORCA-job PtCl4-2h-wB97X-D3BJ-Sapporo-DZP-2012-OPT
  Pt  -1.76989007991021      1.04328028493038     -0.00163030315530
  Cl  -0.10155979645646      2.69127032830906      0.00088841723879
  Cl  -3.41792268577773      2.71152931205282      0.00820659649079
  Cl  -3.43823397350705     -0.60469962606867     -0.00400912180418
  Cl  -0.12187346434855     -0.62499029922359     -0.01163558877010
