5
Coordinates from ORCA-job PtCl4-2-B2PLYP-def2-TZVP-OPT
  Pt  -1.76988222820892      1.04327772659852     -0.00163016547258
  Cl  -0.09249517819111      2.70003792810187      0.00090139636378
  Cl  -3.42685978429954      2.72042196372864      0.00825936421158
  Cl  -3.44729971395140     -0.61350423376200     -0.00402149106631
  Cl  -0.11294309534903     -0.63384338466703     -0.01168910403648
