5
Coordinates from ORCA-job PtCl4-2c-RI-SCS-MP2-ZORA-def2-TZVP-OPT
  Pt  -1.76989776818469      1.04327642510450     -0.00163070049698
  Cl  -0.12088056538814      2.67222953765792      0.00085943227073
  Cl  -3.39881879385850      2.69226081516464      0.00809284410751
  Cl  -3.41891140999036     -0.58567801625885     -0.00398179537326
  Cl  -0.14097146257830     -0.60569876166822     -0.01151978050799
