5
Coordinates from ORCA-job PtCl4-2h-CAM-B3LYP-Sapporo-DZP-2012-OPT
  Pt  -1.76990725384862      1.04327232849059     -0.00163008257203
  Cl  -0.08997548001627      2.70270584571080      0.00090587384344
  Cl  -3.42935707596541      2.72312563774800      0.00827492378243
  Cl  -3.44981789342866     -0.61615148718210     -0.00402567657986
  Cl  -0.11042229674104     -0.63656232476728     -0.01170503847398
