5
Coordinates from ORCA-job PtCl4-2e-M062X-DKH-def2-TZVP-OPT
  Pt  -1.76990172656272      1.04327787230054     -0.00162997727306
  Cl  -0.08409347242351      2.70852372072197      0.00091478305185
  Cl  -3.43514770660528      2.72899592708544      0.00830951965700
  Cl  -3.45569704004348     -0.62197573694864     -0.00403412192149
  Cl  -0.10464005436502     -0.64243178315931     -0.01174020351430
