5
Coordinates from ORCA-job PtCl4-2-RHF-def2-QZVP-OPT
  Pt  -1.76989614509353      1.04327833270419     -0.00162958040111
  Cl  -0.05813866557241      2.73420554086994      0.00095413962747
  Cl  -3.46075438829452      2.75495222854091      0.00846250294220
  Cl  -3.48164963888212     -0.64765168842766     -0.00407126800266
  Cl  -0.07904116215742     -0.66839441368739     -0.01189579416591
