5
Coordinates from ORCA-job PtCl4-2-B97-3c-LANL2DZ-OPT
  Pt  -1.76989588935826      1.04327796568582     -0.00162894563712
  Cl  -0.02617263828857      2.76575365474026      0.00100227235083
  Cl  -3.49239522673988      2.78695190047629      0.00865123315313
  Cl  -3.51361912294843     -0.67919840096851     -0.00411675174418
  Cl  -0.04739712266486     -0.70039511993386     -0.01208780812267
