5
Coordinates from ORCA-job PtCl4-2c-wB97X-D3BJ-ZORA-def2-TZVP-OPT
  Pt  -1.76989632313433      1.04327804172843     -0.00163042455844
  Cl  -0.10786022598471      2.68507459591009      0.00087901485730
  Cl  -3.41169572167060      2.70528040075704      0.00816963557789
  Cl  -3.43192983596270     -0.59852582611246     -0.00400032652300
  Cl  -0.12809789324766     -0.61871721228310     -0.01159789935374
