5
Coordinates from ORCA-job PtCl4-2-wB97X-D3BJ-LANL2DZ-OPT
  Pt  -1.76989296988818      1.04327776213189     -0.00162933205338
  Cl  -0.04532698949522      2.74683526014464      0.00097337657153
  Cl  -3.47347472994176      2.76780720699509      0.00853834135824
  Cl  -3.49446580675767     -0.66028712932882     -0.00408945958634
  Cl  -0.06631950391718     -0.68124309994279     -0.01197292629005
