5
Coordinates from ORCA-job PtCl4-2-DSD-BLYP-def2-QZVP-OPT
  Pt  -1.76989568568363      1.04327788765374     -0.00163068083530
  Cl  -0.11971201133237      2.67337940289202      0.00086117999616
  Cl  -3.39996918635427      2.69341601184772      0.00809967619573
  Cl  -3.42007775674845     -0.58682486552870     -0.00398343880065
  Cl  -0.13982535988128     -0.60685843686478     -0.01152673655593
