5
Coordinates from ORCA-job PtCl4-2a-wB97X-D3BJ-LANL2TZ-OPT
  Pt  -1.76989532610574      1.04327843998472     -0.00163036795438
  Cl  -0.10499973147045      2.68790282394848      0.00088334111751
  Cl  -3.41451959385612      2.70813756409094      0.00818648377246
  Cl  -3.43479125913926     -0.60135073161751     -0.00400440279551
  Cl  -0.12527408942842     -0.62157809640664     -0.01161505414008
