5
Coordinates from ORCA-job PtCl4-2h-B2PLYP-Sapporo-DZP-2012-OPT
  Pt  -1.76989234964561      1.04328219249665     -0.00163013939199
  Cl  -0.09341518197262      2.69931066915498      0.00090069129244
  Cl  -3.42595917806578      2.71966654363156      0.00825456989967
  Cl  -3.44637492451069     -0.61274678697522     -0.00402075366193
  Cl  -0.11383836580530     -0.63312261830796     -0.01168436813820
