5
Coordinates from ORCA-job PtCl4-2e-RHF-DKH-def2-TZVP-OPT
  Pt  -1.76990917321122      1.04328266902932     -0.00162960603349
  Cl  -0.06184478960709      2.73053465183626      0.00094850908817
  Cl  -3.45710400178571      2.75126562604936      0.00844074815499
  Cl  -3.47793430035379     -0.64399504802579     -0.00406601766108
  Cl  -0.08268773504219     -0.66469789888916     -0.01187363354859
