5
Coordinates from ORCA-job PtCl4-2e-mPW1PW-DKH-def2-TZVP-OPT
  Pt  -1.76990399930072      1.04328427889450     -0.00163035758908
  Cl  -0.10678350588832      2.68612556733280      0.00088059073354
  Cl  -3.41275144605492      2.70634416463970      0.00817591647856
  Cl  -3.43299808384140     -0.59958388553583     -0.00400186246241
  Cl  -0.12704296491464     -0.61978012533118     -0.01160428716062
