5
Coordinates from ORCA-job PtCl4-2e-TPSSh-DKH-def2-TZVP-OPT
  Pt  -1.76989594384227      1.04327727340996     -0.00163025370360
  Cl  -0.09915809996034      2.69360096809610      0.00089188392135
  Cl  -3.42029422815545      2.71390522832031      0.00822065818214
  Cl  -3.44063437783220     -0.60704325007785     -0.00401244355934
  Cl  -0.11949735020975     -0.62735021974852     -0.01164984484055
