5
Coordinates from ORCA-job PtCl4-2g-B2PLYP-Sapporo-DZP-2012-OPT
  Pt  -1.76991079663143      1.04326570698752     -0.00163012216971
  Cl  -0.09126180662786      2.70143463382898      0.00090392946692
  Cl  -3.42807759115179      2.72183980610524      0.00826732147013
  Cl  -3.44853628919833     -0.61488505388276     -0.00402384717607
  Cl  -0.11169351639059     -0.63526509303899     -0.01169728159127
