5
Coordinates from ORCA-job PtCl4-2e-M06-DKH-def2-TZVP-OPT
  Pt  -1.76989370976676      1.04327637725441     -0.00162998163741
  Cl  -0.08291074731793      2.70969174658054      0.00091656857616
  Cl  -3.43633960453635      2.73018278783384      0.00831656182683
  Cl  -3.45688433109632     -0.62312775907944     -0.00403573694884
  Cl  -0.10345160728263     -0.64363315258936     -0.01174741181674
