5
Coordinates from ORCA-job PtCl4-2b-PBE-QIDH-ZORA-def2-TZVP-OPT
  Pt  -1.76989639115955      1.04327729111782     -0.00163072218243
  Cl  -0.12236278752156      2.67075819523894      0.00085716672362
  Cl  -3.39735955902675      2.69077650040376      0.00808410659742
  Cl  -3.41742633094800     -0.58420795020151     -0.00397966709403
  Cl  -0.14243493134414     -0.60421403655901     -0.01151088404458
