5
Coordinates from ORCA-job PtCl4-2g-CAM-B3LYP-Sapporo-DZP-2012-OPT
  Pt  -1.76989845125109      1.04327338596835     -0.00163009834478
  Cl  -0.08998651022798      2.70270320464544      0.00090588846445
  Cl  -3.42935100971702      2.72311286421548      0.00827486306412
  Cl  -3.44981124668951     -0.61613887569949     -0.00402564478944
  Cl  -0.11043278211440     -0.63656057912978     -0.01170500839436
