5
Coordinates from ORCA-job PtCl4-2a-mPW1PW-LANL2TZ-OPT
  Pt  -1.76989683317969      1.04327824362917     -0.00163027059046
  Cl  -0.10030399096472      2.69249530788081      0.00089025353855
  Cl  -3.41915880834434      2.71278231432010      0.00821397999268
  Cl  -3.43948697065458     -0.60593750322380     -0.00401090978112
  Cl  -0.12063339685667     -0.62622836260628     -0.01164305315965
