5
Coordinates from ORCA-job PtCl4-2-PBE-QIDH-LANL2DZ-OPT
  Pt  -1.76989310703327      1.04327775698669     -0.00162915293061
  Cl  -0.03620478104142      2.75573193949659      0.00098671226293
  Cl  -3.48248713025188      2.77681470745927      0.00859169996939
  Cl  -3.50358799052964     -0.66918383315862     -0.00410204759717
  Cl  -0.05730699114379     -0.69025057078394     -0.01202721170453
