5
Coordinates from ORCA-job PtCl4-2-LC-BLYP-def2-TZVP-OPT
  Pt  -1.76989469696021      1.04327833993636     -0.00163047028667
  Cl  -0.10982163950955      2.68313552407687      0.00087605034701
  Cl  -3.40976240975252      2.70331482957876      0.00815806667870
  Cl  -3.42996833612305     -0.59658085287965     -0.00399749969650
  Cl  -0.13003291765466     -0.61675784071234     -0.01158614704253
