5
Coordinates from ORCA-job PtCl4-2d-TPSSh-DKH-def2-TZVP-OPT
  Pt  -1.76990070474206      1.04327617728309     -0.00163022646589
  Cl  -0.09804496085884      2.69469782576632      0.00089355371812
  Cl  -3.42139165001347      2.71502086132724      0.00822722572645
  Cl  -3.44174600024749     -0.60814460363857     -0.00401404116814
  Cl  -0.11839668413813     -0.62846026073808     -0.01165651181053
