5
Coordinates from ORCA-job PtCl4-2b-mPW2PLYP-ZORA-def2-TZVP-OPT
  Pt  -1.76989922733265      1.04327950441092     -0.00163020134467
  Cl  -0.09710481797367      2.69567336437485      0.00089514931443
  Cl  -3.42230597972081      2.71599098139462      0.00823284872991
  Cl  -3.44268504220250     -0.60911967049621     -0.00401555721954
  Cl  -0.11748493277037     -0.62943417968418     -0.01166223948014
