5
Coordinates from ORCA-job PtCl4-2-B97-3c-def2-TZVP-OPT
  Pt  -1.76989633123692      1.04327798440091     -0.00163018899005
  Cl  -0.09586832526475      2.69686514631131      0.00089690406854
  Cl  -3.42354577267668      2.71721130635081      0.00824011953487
  Cl  -3.44392335953313     -0.61030748904298     -0.00401719168679
  Cl  -0.11624621128853     -0.63065694802006     -0.01166964292656
