5
Coordinates from ORCA-job PtCl4-2-TPSSh-def2-TZVP-OPT
  Pt  -1.76989707605464      1.04327815495075     -0.00163011476870
  Cl  -0.09179928092999      2.70088089277342      0.00090303270451
  Cl  -3.42756354210642      2.72127270017357      0.00826407941781
  Cl  -3.44799196231410     -0.61432095556393     -0.00402297322156
  Cl  -0.11222813859485     -0.63472079233381     -0.01169402413205
