5
Coordinates from ORCA-job PtCl4-2a-PBE0-LANL2TZ-OPT
  Pt  -1.76989660735368      1.04327821779342     -0.00163032404600
  Cl  -0.10302306705551      2.68980829234011      0.00088614597526
  Cl  -3.41647296799612      2.71006230246123      0.00819794559252
  Cl  -3.43676777212471     -0.60325051937458     -0.00400702736875
  Cl  -0.12331958546999     -0.62350829322018     -0.01162674015303
