5
Coordinates from ORCA-job PtCl4-2-M06L-def2-QZVP-OPT
  Pt  -1.76989622092304      1.04327807733729     -0.00162997220363
  Cl  -0.08323125134061      2.70932322989891      0.00091588882613
  Cl  -3.43604148264132      2.72983594663706      0.00831461436100
  Cl  -3.45656052694970     -0.62276631833834     -0.00403512072117
  Cl  -0.10375051814533     -0.64328093553492     -0.01174541026234
