5
Coordinates from ORCA-job PtCl4-2-RI-SCS-MP2-LANL2DZ-OPT
  Pt  -1.76989635523378      1.04327800565128     -0.00162865650593
  Cl  -0.01183005149735      2.77994876064650      0.00102401813534
  Cl  -3.50656182091216      2.80131935731530      0.00873588179487
  Cl  -3.52796158613332     -0.69339239357457     -0.00413731173067
  Cl  -0.03323018622340     -0.71476373003850     -0.01217393169361
