5
Coordinates from ORCA-job PtCl4-2c-CAM-B3LYP-ZORA-def2-TZVP-OPT
  Pt  -1.76989881420685      1.04327923400159     -0.00163016865472
  Cl  -0.09526042141145      2.69748668854412      0.00089790096437
  Cl  -3.42413722102478      2.71783458651809      0.00824374108293
  Cl  -3.44453053450020     -0.61093163701634     -0.00401814824774
  Cl  -0.11565300885673     -0.63127887204747     -0.01167332514484
