5
Coordinates from ORCA-job PtCl4-2-B3LYP-LANL2DZ-OPT
  Pt  -1.76989621535216      1.04327801105540     -0.00162864094765
  Cl  -0.01104681024089      2.78070817662098      0.00102514622323
  Cl  -3.50733582098956      2.80208865355280      0.00874044826087
  Cl  -3.52874474929173     -0.69415212056210     -0.00413837739327
  Cl  -0.03245640412566     -0.71553272066708     -0.01217857614318
