5
Coordinates from ORCA-job PtCl4-2-mPW1PW-LANL2DZ-OPT
  Pt  -1.76989772764157      1.04327807921558     -0.00162910589435
  Cl  -0.03444886804851      2.75755041156933      0.00098967822927
  Cl  -3.48421852519759      2.77864201983807      0.00860231102022
  Cl  -3.50534225580641     -0.67098985874567     -0.00410482267020
  Cl  -0.05557262330591     -0.69209065187732     -0.01203806068493
