5
Coordinates from ORCA-job PtCl4-2d-RHF-DKH-def2-TZVP-OPT
  Pt  -1.76989656997905      1.04327473540032     -0.00162964642963
  Cl  -0.06096057325995      2.73142536911378      0.00094990860642
  Cl  -3.45798314296992      2.75215261194929      0.00844598450459
  Cl  -3.47883400021986     -0.64486774350511     -0.00406724150159
  Cl  -0.08180571357121     -0.66559497295828     -0.01187900517979
