5
Coordinates from ORCA-job PtCl4-2c-M062X-ZORA-def2-TZVP-OPT
  Pt  -1.76989705339141      1.04327636275605     -0.00162995900203
  Cl  -0.08197810327530      2.71061682197933      0.00091799050825
  Cl  -3.43724091795006      2.73111029163680      0.00832199753855
  Cl  -3.45781564505948     -0.62406233971925     -0.00403711947558
  Cl  -0.10254828032375     -0.64455113665293     -0.01175290956919
