5
Coordinates from ORCA-job PtCl4-2-DSD-BLYP-def2-TZVP-OPT
  Pt  -1.76989478577786      1.04327833769095     -0.00163051728036
  Cl  -0.11206347504542      2.68093633781681      0.00087272537969
  Cl  -3.40753487183846      2.70107382448988      0.00814482427289
  Cl  -3.42772765300227     -0.59438000193970     -0.00399434935824
  Cl  -0.13225921433599     -0.61451849805795     -0.01157268301398
