5
Coordinates from ORCA-job PtCl4-2g-M06L-Sapporo-DZP-2012-OPT
  Pt  -1.76991011722997      1.04328077250680     -0.00162979720942
  Cl  -0.07458666305760      2.71790796593545      0.00092911436617
  Cl  -3.44456614624303      2.73853393876128      0.00836575576148
  Cl  -3.46519635585844     -0.63136780581386     -0.00404769512554
  Cl  -0.09522071761096     -0.65196487138967     -0.01179737779269
