5
Coordinates from ORCA-job PtCl4-2e-LC-BLYP-DKH-def2-TZVP-OPT
  Pt  -1.76989917952680      1.04327984881382     -0.00163061619407
  Cl  -0.11755813939829      2.67549019940159      0.00086436576791
  Cl  -3.40211829028053      2.69558031552406      0.00811245972288
  Cl  -3.42223039569672     -0.58894069509524     -0.00398647148073
  Cl  -0.13767399509766     -0.60901966864424     -0.01153973781599
