5
Coordinates from ORCA-job PtCl4-2-B2PLYP-LANL2DZ-OPT
  Pt  -1.76989625600789      1.04327795165123     -0.00162869249905
  Cl  -0.01359078303358      2.77820118958237      0.00102132999238
  Cl  -3.50482260230596      2.79955056795741      0.00872547134536
  Cl  -3.52620092609785     -0.69164504928847     -0.00413476949437
  Cl  -0.03496943255472     -0.71299465990254     -0.01216333934431
