5
Coordinates from ORCA-job PtCl4-2g-TPSSh-Sapporo-DZP-2012-OPT
  Pt  -1.76987538456016      1.04327257256851     -0.00163017362286
  Cl  -0.09121249245189      2.70147880795334      0.00090398766590
  Cl  -3.42815513353675      2.72185865269653      0.00826756298570
  Cl  -3.44859541023798     -0.61489568718773     -0.00402375449128
  Cl  -0.11164157921321     -0.63532434603064     -0.01169762253745
