5
Coordinates from ORCA-job PtCl4-2-B2PLYP-def2-QZVP-OPT
  Pt  -1.76989693561354      1.04327699706016     -0.00163023699097
  Cl  -0.09821683956200      2.69459322286082      0.00089353986247
  Cl  -3.42120185653547      2.71488709342947      0.00822631008997
  Cl  -3.44157673536009     -0.60803468990544     -0.00401401301514
  Cl  -0.11858763292890     -0.62833262344501     -0.01165559994632
