5
Coordinates from ORCA-job PtCl4-2-CAM-B3LYP-def2-TZVP-OPT
  Pt  -1.76989804611057      1.04327799576618     -0.00163009080986
  Cl  -0.09050089904871      2.70219509257281      0.00090511194933
  Cl  -3.42884264440254      2.72260167323233      0.00827184125943
  Cl  -3.44929185646808     -0.61563668142033     -0.00402494468349
  Cl  -0.11094655397011     -0.63604808015100     -0.01170191771541
