5
Coordinates from ORCA-job PtCl4-2a-PBE-QIDH-LANL2TZ-OPT
  Pt  -1.76989537572827      1.04327854172018     -0.00163057649172
  Cl  -0.11501624356660      2.67801869380208      0.00086826701052
  Cl  -3.40462042962602      2.69812227716691      0.00812742606273
  Cl  -3.42477318221381     -0.59146176416595     -0.00399013459418
  Cl  -0.13517476886529     -0.61156774852323     -0.01155498198735
