5
Coordinates from ORCA-job PtCl4-2a-TPSSh-LANL2TZ-OPT
  Pt  -1.76989686630243      1.04327818919570     -0.00163011502916
  Cl  -0.09179437457923      2.70088304265186      0.00090302996317
  Cl  -3.42756870211812      2.72127508679348      0.00826409966891
  Cl  -3.44799680971660     -0.61432312224165     -0.00402297037757
  Cl  -0.11222324728362     -0.63472319639939     -0.01169404422536
