5
Coordinates from ORCA-job PtCl4-2f-RI-SCS-MP2-Sapporo-DZP-2012-OPT
  Pt  -1.76991857772417      1.04326784185095     -0.00163020458661
  Cl  -0.09721011429405      2.69556593318889      0.00089497705352
  Cl  -3.42218896993030      2.71589699070013      0.00823224129680
  Cl  -3.44258230430807     -0.60902443712964     -0.00401543325989
  Cl  -0.11758003374340     -0.62931632861033     -0.01166158050382
