5
Coordinates from ORCA-job PtCl4-2d-PBE0-DKH-def2-TZVP-OPT
  Pt  -1.76989227355999      1.04328076410675     -0.00163042535573
  Cl  -0.10819045620002      2.68474688278801      0.00087850975697
  Cl  -3.41136750879378      2.70493613399085      0.00816763083389
  Cl  -3.43159970371529     -0.59819107292136     -0.00399982480732
  Cl  -0.12843005773092     -0.61838270796425     -0.01159589042781
