5
Coordinates from ORCA-job PtCl4-2b-PBE0-ZORA-def2-TZVP-OPT
  Pt  -1.76989608841253      1.04327755203065     -0.00163037969310
  Cl  -0.10570507514436      2.68720051997301      0.00088225475471
  Cl  -3.41382104850693      2.70742469368671      0.00818229232842
  Cl  -3.43408696266532     -0.60064748106023     -0.00400337097218
  Cl  -0.12597082527087     -0.62086528463014     -0.01161079641787
