5
Coordinates from ORCA-job PtCl4-2g-M062X-Sapporo-DZP-2012-OPT
  Pt  -1.76991224842926      1.04327269367267     -0.00162981388236
  Cl  -0.07413684351155      2.71837163983478      0.00092986530168
  Cl  -3.44498706149285      2.73898364222794      0.00836835524415
  Cl  -3.46565027293894     -0.63183036692555     -0.00404839578701
  Cl  -0.09479357362740     -0.65240760880984     -0.01180001087646
