5
Coordinates from ORCA-job PtCl4-2e-PBE0-DKH-def2-TZVP-OPT
  Pt  -1.76990310976530      1.04328228470069     -0.00163041943526
  Cl  -0.10938383534608      2.68355945141685      0.00087667641517
  Cl  -3.41018372329791      2.70374443960263      0.00816059025639
  Cl  -3.43039968113545     -0.59701423541813     -0.00399814447909
  Cl  -0.12960965045525     -0.61718194030204     -0.01158870275721
