5
Coordinates from ORCA-job PtCl4-2c-PBE-QIDH-ZORA-def2-TZVP-OPT
  Pt  -1.76989394585562      1.04327999195643     -0.00163075548791
  Cl  -0.12490526841772      2.66824667124872      0.00085332692461
  Cl  -3.39485174893568      2.68823334199210      0.00806911943494
  Cl  -3.41488192886447     -0.58169454207310     -0.00397604033083
  Cl  -0.14494710792650     -0.60167546312415     -0.01149565054080
