5
Coordinates from ORCA-job PtCl4-2f-M062X-Sapporo-DZP-2012-OPT
  Pt  -1.76990277188539      1.04327175437082     -0.00162973718699
  Cl  -0.06735608097246      2.72507638569952      0.00094013121453
  Cl  -3.45169063073685      2.74576324365922      0.00840834878997
  Cl  -3.47243947746572     -0.63852637981951     -0.00405803424274
  Cl  -0.08809103893957     -0.65919500391006     -0.01184070857477
