5
Coordinates from ORCA-job PtCl4-2b-M06L-ZORA-def2-TZVP-OPT
  Pt  -1.76989816452366      1.04327919909783     -0.00162994900901
  Cl  -0.08222716225079      2.71031812352114      0.00091741658055
  Cl  -3.43702297452858      2.73083471434070      0.00832049258099
  Cl  -3.45756246496194     -0.62376291793217     -0.00403657459917
  Cl  -0.10276923373503     -0.64427911902749     -0.01175138555336
